
     RDKit          3D

 33 33  0  0  0  0  0  0  0  0999 V2000
   -2.4560    0.6038   -1.7953 C   0  0  0  0  0  0  0  0  0  0  0  0
   -2.5175   -0.5300   -0.7678 C   0  0  0  0  0  0  0  0  0  0  0  0
   -1.9660   -0.1336    0.6026 C   0  0  0  0  0  0  0  0  0  0  0  0
   -2.9093   -0.1178    1.6604 C   0  0  0  0  0  0  0  0  0  0  0  0
   -2.5401    0.2255    2.9589 C   0  0  0  0  0  0  0  0  0  0  0  0
   -3.8380    0.2287    4.3321 Br  0  0  0  0  0  0  0  0  0  0  0  0
   -1.2234    0.5585    3.2242 C   0  0  0  0  0  0  0  0  0  0  0  0
   -0.2724    0.5532    2.2067 C   0  0  0  0  0  0  0  0  0  0  0  0
   -0.6198    0.2127    0.8898 C   0  0  0  0  0  0  0  0  0  0  0  0
    0.3468    0.2027   -0.1411 N   0  0  0  0  0  0  0  0  0  0  0  0
    1.6679    0.5517   -0.0814 C   0  0  0  0  0  0  0  0  0  0  0  0
    2.2874    0.9586    0.8851 O   0  0  0  0  0  0  0  0  0  0  0  0
    2.3066    0.3622   -1.3010 N   0  0  0  0  0  0  0  0  0  0  0  0
    3.9200    0.7318   -1.5419 S   0  0  0  0  0  0  0  0  0  0  0  0
    4.0543    2.1707   -1.4324 O   0  0  0  0  0  0  0  0  0  0  0  0
    4.2266    0.0736   -2.8002 O   0  0  0  0  0  0  0  0  0  0  0  0
    4.7950   -0.1165   -0.1623 C   0  0  0  0  0  0  0  0  0  0  0  0
    6.1045   -0.3579   -0.4602 F   0  0  0  0  0  0  0  0  0  0  0  0
    4.2350   -1.3334    0.1091 F   0  0  0  0  0  0  0  0  0  0  0  0
   -0.8356    0.8903    4.4644 F   0  0  0  0  0  0  0  0  0  0  0  0
   -1.9305   -1.8399   -1.3010 C   0  0  0  0  0  0  0  0  0  0  0  0
   -3.0040    0.3238   -2.7019 H   0  0  0  0  0  0  0  0  0  0  0  0
   -2.9170    1.5145   -1.3966 H   0  0  0  0  0  0  0  0  0  0  0  0
   -1.4379    0.8561   -2.1004 H   0  0  0  0  0  0  0  0  0  0  0  0
   -3.5904   -0.7355   -0.6423 H   0  0  0  0  0  0  0  0  0  0  0  0
   -3.9493   -0.3778    1.4663 H   0  0  0  0  0  0  0  0  0  0  0  0
    0.7371    0.8235    2.4961 H   0  0  0  0  0  0  0  0  0  0  0  0
    0.0283   -0.0414   -1.0607 H   0  0  0  0  0  0  0  0  0  0  0  0
    1.9183   -0.2094   -2.0407 H   0  0  0  0  0  0  0  0  0  0  0  0
    4.7484    0.5115    0.7296 H   0  0  0  0  0  0  0  0  0  0  0  0
   -0.8757   -1.7619   -1.5741 H   0  0  0  0  0  0  0  0  0  0  0  0
   -2.4723   -2.1605   -2.1979 H   0  0  0  0  0  0  0  0  0  0  0  0
   -2.0211   -2.6379   -0.5555 H   0  0  0  0  0  0  0  0  0  0  0  0
  1  2  1  0
  2  3  1  0
  3  4  2  0
  4  5  1  0
  5  6  1  0
  5  7  2  0
  7  8  1  0
  8  9  2  0
  9 10  1  0
 10 11  1  0
 11 12  2  0
 11 13  1  0
 13 14  1  0
 14 15  2  0
 14 16  2  0
 14 17  1  0
 17 18  1  0
 17 19  1  0
  7 20  1  0
  2 21  1  0
  9  3  1  0
  1 22  1  0
  1 23  1  0
  1 24  1  0
  2 25  1  0
  4 26  1  0
  8 27  1  0
 10 28  1  0
 13 29  1  0
 17 30  1  0
 21 31  1  0
 21 32  1  0
 21 33  1  0
M  END
$$$$
